          42
 
 O    11.1598151672723       -5.24922283092805       -14.7787656272823     
 D    11.1641625198959       -4.98947150726333       -14.8363770424323     
 G    11.1641625198959       -4.98947150726333       -14.8363770424323     
 H    11.9141665276734       -4.72181141505953       -15.1003495564091     
 G    11.9141665276734       -4.72181141505953       -15.1003495564091     
 H    10.4249610970389       -4.61155060605291       -14.7155902271316     
 G    10.4249610970389       -4.61155060605291       -14.7155902271316     
 O    15.5521786422749       -18.6029548307863       -19.2646795500745     
 D    15.3396088128368       -18.7181441787261       -19.3758290283002     
 G    15.3396088128368       -18.7181441787261       -19.3758290283002     
 H    14.6289111441587       -18.2898316314618       -19.2521899957599     
 G    14.6289111441587       -18.2898316314618       -19.2521899957599     
 H    15.5219909542566       -19.4327477831982       -19.7757175738259     
 G    15.5219909542566       -19.4327477831982       -19.7757175738259     
 O   -6.47768949126706        15.4967832738787       -16.7482425502163     
 D   -6.57520214298683        15.6270762925084       -16.5377105174351     
 G   -6.57520214298683        15.6270762925084       -16.5377105174351     
 H   -6.70626650497639        16.4425060284064       -16.6851076124052     
 G   -6.70626650497639        16.4425060284064       -16.6851076124052     
 H   -6.68649377666518        15.1354722950258       -15.8670600214178     
 G   -6.68649377666518        15.1354722950258       -15.8670600214178     
 O   -1.78933982141357       -19.7180105198423       -15.1011794155311     
 D   -1.63598071986020       -19.7994081138446       -15.3028329362973     
 G   -1.63598071986020       -19.7994081138446       -15.3028329362973     
 H   -2.04985940400192       -20.2620092517734       -15.8672211420352     
 G   -2.04985940400192       -20.2620092517734       -15.8672211420352     
 H  -0.840944524850475       -19.5391098668131       -15.2396294783795     
 G  -0.840944524850475       -19.5391098668131       -15.2396294783795     
 O    15.1783368065218        2.51141503688827       -11.9364432896590     
 D    15.1179816384111        2.26744540241427       -11.8490087660831     
 G    15.1179816384111        2.26744540241427       -11.8490087660831     
 H    14.2969302203468        2.15743809667657       -11.7163347808600     
 G    14.2969302203468        2.15743809667657       -11.7163347808600     
 H    15.7890297536042        1.77109479922640       -11.7643747794893     
 G    15.7890297536042        1.77109479922640       -11.7643747794893     
 O    19.8893452253349       -9.47364892168804        14.2392208069578     
 D    19.8582800405361       -9.21233411433935        14.2786954890937     
 G    19.8582800405361       -9.21233411433935        14.2786954890937     
 H    19.7988907542695       -9.00513959898831        15.0894807690916     
 G    19.7988907542695       -9.00513959898831        15.0894807690916     
 H    19.8404605904278       -8.77006159697747        13.5660175159107     
 G    19.8404605904278       -8.77006159697747        13.5660175159107     
         441
 
 O    2.59782164149500        14.7784975226118        15.3509408285617     
 D    2.58923296034269        15.0444408468425        15.3479229436832     
 G    2.58976537678507        15.0450477104766        15.3476061828071     
 H    3.08877529883691        15.3848450886165        14.7661911936385     
 G    3.08817586233773        15.3841898376462        14.7665928070846     
 H    2.06834294804389        15.3650068791572        15.9221558405895     
 G    2.06780835612617        15.3644626844376        15.9223578336604     
 O   -14.2208312332515        19.5825912426315        11.3821437231509     
 D   -14.4536095613177        19.7115096343670        11.3804050365799     
 G   -14.4542325018690        19.7129755245157        11.3805872534363     
 H   -15.0979534720232        19.2339365805258        11.6265235603801     
 G   -15.0972456096291        19.2328959161887        11.6262894881665     
 H   -14.3878072577583        20.5094958401524        11.1299644685831     
 G   -14.3871806906657        20.5076243685152        11.1299181143356     
 O    15.2433666001165        9.00707307742000      -0.966819063006831     
 D    15.1199654484221        9.08219326765549      -0.743351307938073     
 G    15.1272652186799        9.07348875990933      -0.751089690887967     
 H    15.1451859600788        8.49990162953705      -0.139919622703419     
 G    15.1403209966633        8.50300986017038      -0.133479979422548     
 H    14.7880456059125        9.85118918042332      -0.791381612650472     
 G    14.7872398373380        9.86060924968518      -0.790400615253680     
 O   -18.1616824965158        10.5427007671191       2.266940894498472E-002
 D   -18.3864500475388        10.6025497147286      -0.106583738997835     
 G   -18.3834797565796        10.6021332290046      -0.104528682098849     
 H   -19.0623616414516        10.2203407373393       0.211046926387749     
 G   -19.0652391359866        10.2212190096650       0.208380077967353     
 H   -18.2691701082737        11.1335074619799      -0.745459072968228     
 G   -18.2726797304380        11.1336405325203      -0.747282927836173     
 O    16.9401620788084        15.6968306927447        14.6707641480233     
 D    17.0666334552315        15.8749503009234        14.5188196815104     
 G    17.0661304268694        15.8745470275095        14.5188779445115     
 H    17.9021737843768        15.8177213856470        14.5680805625829     
 G    17.9026496028530        15.8181044616111        14.5680937244911     
 H    16.5454205553996        16.3748750226817        14.0919182976994     
 G    16.5458806264651        16.3752529889973        14.0918676097027     
 O    3.38216768049670       -4.43808170793039      -0.589177110404972     
 D    3.62360057180043       -4.35116256613552      -0.659632390990364     
 G    3.62589292446396       -4.34904239181874      -0.653453052214904     
 H    3.74398947274721       -3.53786215001450      -0.492664219046693     
 G    3.74421027030655       -3.53620304432724      -0.499061552747226     
 H    4.10326476752065       -4.94843797939543       -1.00170949623896     
 G    4.10036809832926       -4.95136410683351       -1.00530875052300     
 O    11.7801011497079      -0.441670855784623        18.5662029649833     
 D    11.6583228655095      -0.443918458062737        18.8027906285622     
 G    11.6621926526960      -0.454132024523567        18.7942834967293     
 H    11.5423053897147       0.323083078114398        19.1222871286809     
 G    11.5421379635757       0.328328948932080        19.1258446935573     
 H    11.4716748842899       -1.21650845621412        19.0713043744656     
 G    11.4646972812003       -1.21086465621165        19.0835262222018     
 O    6.12589439026525        18.9740323565808       -1.96926697414029     
 D    6.38400825594932        18.9185369177614       -2.00252676048765     
 G    6.38496685535318        18.9199732419259       -2.00433552544813     
 H    6.87744007562351        19.5947714517736       -1.94719757182242     
 G    6.87636396686812        19.5935818223832       -1.94449804082664     
 H    6.53208703861947        18.1043728708085       -2.14051945829515     
 G    6.53131795378550        18.1025651130459       -2.13909113055556     
 O   0.637753764195586        18.5297521422763       -14.2529006110866     
 D   0.859228727147399        18.6771486737422       -14.2472589736193     
 G   0.860807021817184        18.6770515439602       -14.2445639270816     
 H   0.824674586466807        19.3454210784215       -14.7532702672502     
 G   0.823749060287555        19.3457509517386       -14.7571163766657     
 H    1.44423331362768        18.3752112482367       -13.7272245221143     
 G    1.44278831185870        18.3739834463591       -13.7295883791014     
 O   0.871865281739175       -11.6673910244216       -7.79850702619292     
 D   0.627446329201273       -11.7507997308576       -7.86262479367544     
 G   0.628770214308343       -11.7506354184721       -7.86239877495539     
 H   8.356362353515079E-002  -11.7015541422764       -7.22576068002279     
 G   8.222369800552018E-002  -11.7017418041761       -7.22579142165588     
 H   0.563855703067407       -12.0073481367274       -8.65884810003467     
 G   0.562734996253246       -12.0074536825149       -8.65910470032194     
 O    9.03568287064245      -0.120060263721131       0.687804436008679     
 D    9.10618839118685      -0.376384422824038       0.699450113702557     
 G    9.10880940726956      -0.372764744786673       0.716790419941279     
 H    9.49875167206679      -0.579294252933746        1.41257779941223     
 G    9.49740424224737      -0.577649158294168        1.40130219020014     
 H    8.88885722615920      -0.810537960733105       1.526426460542457E-002
 G    8.87774189120543      -0.828945362492084      -2.695839973565200E-002
 O   -6.20291986757269        4.17455553539828        5.33715998905755     
 D   -6.36803337847510        4.23161451211993        5.53788499115982     
 G   -6.37323051574828        4.21646138850044        5.52782122514502     
 H   -7.17446268928463        4.25099909422959        5.30739544818719     
 G   -7.16676391871613        4.27069307807949        5.31323508055383     
 H   -5.97197212949249        4.35404334273376        6.26725394742603     
 G   -5.98328604058619        4.36376186209711        6.29397729995743     
 O    4.82005813592192        18.8423446466295       -18.1908758832936     
 D    5.07839368936025        18.7893458824472       -18.2264089327104     
 G    5.07446495492045        18.8017140525267       -18.2261346280639     
 H    5.39248286811738        19.1292007579361       -18.9261775202950     
 G    5.39442474060428        19.1216252063635       -18.9251179241235     
 H    5.40636663161222        18.3177677011705       -17.6149515147570     
 G    5.40945697800843        18.2941806627130       -17.6153637951401     
 O   -13.8929498255266       -5.35271610812997        15.5826614435319     
 D   -13.6972345931733       -5.25877198346045        15.7365405325628     
 G   -13.7014914463420       -5.25455756882127        15.7395864641829     
 H   -13.9281790149792       -5.15000434954311        16.5357049090366     
 G   -13.9260178830470       -5.15760743939451        16.5351691391278     
 H   -12.9798619585670       -5.13405271487865        15.3198223867635     
 G   -12.9697781546662       -5.13192463203346        15.3166981820419     
 O   -11.2703714816527        5.34997372829489       -14.7959492238066     
 D   -11.2539415463774        5.41148510679834       -14.5375790778581     
 G   -11.2544848659599        5.41202186122603       -14.5364191896780     
 H   -11.9534107668050        5.76333788089851       -14.2362953912628     
 G   -11.9524291489181        5.76231785530847       -14.2370449181313     
 H   -10.5136355227928        5.21251067377419       -14.1967146292528     
 G   -10.5134056711298        5.21200623096461       -14.1973194317507     
 O   -19.7736685421549       -13.4190631523527       -7.23587095955482     
 D   -19.9967794278116       -13.5531609716339       -7.29107994742367     
 G   -19.9888217926215       -13.5434393490533       -7.29661542100652     
 H   -20.6820200571714       -13.0691417223422       -7.29134634136231     
 G   -20.6884783908886       -13.0799788495759       -7.28940829600249     
 H   -19.8660529753493       -14.3704662589039       -7.42802909091552     
 G   -19.8844923150869       -14.3903468464154       -7.42581774023688     
 O    1.65188531398384       -9.25855212104974        5.13174870839460     
 D    1.44019410556734       -9.41719090965636        5.16054613544275     
 G    1.44152244816907       -9.41884577839468        5.16122870117133     
 H    1.42733395383876       -9.82126440337208        5.89565745555003     
 G    1.42610929629754       -9.82015130957792        5.89490752680357     
 H   0.926920341652332       -9.40739451647082        4.49700527021056     
 G   0.925825634559575       -9.40548339279332        4.49661776294989     
 O    14.2203206826266       -2.18569461620314        17.2274140579129     
 D    14.0044164596559       -2.30129466609865        17.1233433139760     
 G    14.0099718000833       -2.31046446923993        17.1217568415587     
 H    14.1854704538515       -2.86881416876721        16.5326060711576     
 G    14.1828445433097       -2.86337051719080        16.5339574040541     
 H    13.2867570073284       -2.02108397731212        17.4554265659636     
 G    13.2776189462791       -1.99852583994089        17.4582887847844     
 O   -9.13418602096833        10.3716695737096       -4.53623535022360     
 D   -8.95391984548555        10.5248731103035       -4.41440962581398     
 G   -8.95544683599649        10.5249581823019       -4.41520732295591     
 H   -9.07839624215983        10.5878621764178       -3.58714459633610     
 G   -9.07614255442616        10.5876596760880       -3.58710777394558     
 H   -8.38141239589797        10.8426534819903       -4.93889343053375     
 G   -8.38012232731716        10.8426774361111       -4.93768272853447     
 O  -0.979990133957339        7.81046677219939        9.78926305342155     
 D  -0.741036511695037        7.76833816956274        9.68001529818783     
 G  -0.739120857385068        7.76924568091579        9.67916117925337     
 H  -0.753764723165925        7.19475117646158        9.06791614057206     
 G  -0.756111958547117        7.19371980332814        9.06890397437454     
 H  -0.134416738894394        8.23722113066701        10.0205936678906     
 G  -0.136230980802147        8.23710629693798        10.0213848593993     
 O   -14.5255651051090       -17.6090129265975       -9.10473442416762     
 D   -14.2919471029750       -17.4816813214787       -9.10897897276143     
 G   -14.2916608173140       -17.4822940156137       -9.10971670498119     
 H   -14.1544275671607       -17.0200372803364       -8.42210010329228     
 G   -14.1549095280080       -17.0191405919974       -8.42128398778240     
 H   -13.8488365945971       -17.6268588099588       -9.80640924173437     
 G   -13.8491222267562       -17.6264650825942       -9.80580578525185     
 O    3.87202770851783       -9.64293403905028        18.4922156148871     
 D    3.97366937468580       -9.54826081571104        18.2652471649713     
 G    3.97376356829811       -9.54784986628974        18.2660389138691     
 H    4.54811886402061       -8.94866324185657        18.3849131935960     
 G    4.54808404536548       -8.94919566146073        18.3840274001700     
 H    3.65183673401524       -9.91256087325165        17.5814770096187     
 G    3.65170840351794       -9.91281235263803        17.5807533026675     
 O   -11.3688982690339        18.3014883434798        4.25831457152890     
 D   -11.6212064993060        18.3259035241180        4.33926628965395     
 G   -11.6158112352924        18.3274428509735        4.33507674164920     
 H   -11.7139374267203        18.8663023961809        4.97424617827245     
 G   -11.7194475320064        18.8629208796455        4.97738709999436     
 H   -12.1555581458348        17.8461841272569        3.90548060062861     
 G   -12.1612042123323        17.8450607360378        3.91267388185164     
 O    12.8455293273744       -7.20559066253064       -14.7408541143099     
 D    12.6164338598043       -7.28737378181100       -14.6329860795840     
 G    12.6388608414689       -7.30305474452773       -14.6287299026682     
 H    12.2922981745082       -6.73739085226170       -14.0886660822497     
 G    12.2737862455293       -6.71035213534266       -14.0862045641367     
 H    12.3711802975421       -8.04062082644514       -14.9092142204814     
 G    12.3503619455933       -8.04469993920167       -14.9125730973776     
 O    9.36518989173969       -2.04882114696415       -14.4424582108038     
 D    9.12881140950570       -2.11659557211920       -14.5441467805039     
 G    9.14400558862871       -2.12658724405677       -14.5379947182381     
 H    8.55147918213077       -2.28078798314352       -13.9580087624806     
 G    8.53857020902256       -2.27603871054721       -13.9564634769947     
 H    9.11865406239644       -2.12084814293880       -15.3830217114782     
 G    9.11237949528585       -2.11694207763146       -15.3918401561295     
 O    19.5892872656394        9.10421651675308       -9.57355657363883     
 D    19.8535666126321        9.11864859821857       -9.60106778142202     
 G    19.8534536934326        9.11890148043960       -9.60206865291168     
 H    20.2718854949989        8.81590877368893       -8.93986634760991     
 G    20.2719261887656        8.81581504914641       -8.93856964640736     
 H    20.0920821474920        9.45725859855439       -10.3306471213016     
 G    20.0920654112784        9.45691309895735       -10.3299096009264     
 O    8.31206218082549       -2.10535229267438       -1.09319294335402     
 D    8.20938301764489       -2.35032446817208       -1.10914121775775     
 G    8.21866487572137       -2.33040991425677       -1.09465721238927     
 H    8.23498906800856       -2.76760747867940      -0.381783916218324     
 G    8.22734041233924       -2.79148988184260      -0.380736260944717     
 H    7.92857973514257       -2.54189014179505       -1.87613829408940     
 G    7.92571594350577       -2.54881164453607       -1.88754950068249     
 O   -18.0665716109209       -16.6783865758522        14.7616290602101     
 D   -17.9626610295461       -16.4814877275609        14.6158821583702     
 G   -17.9626654514056       -16.4824323236370        14.6150464189558     
 H   -17.6731324446138       -15.8446304491729        15.0789322963112     
 G   -17.6730607502339       -15.8438823540802        15.0795713204851     
 H   -17.9939327831041       -16.6289776632762        13.7905936014593     
 G   -17.9941579413551       -16.6276945333392        13.7914761102854     
 O   -14.9214402913840       -7.86345641303624       -3.08687547247806     
 D   -14.7870525703746       -7.70712557715097       -2.91862169103670     
 G   -14.7859073852649       -7.70653247420200       -2.92059168054937     
 H   -15.2713765979612       -7.36929246965893       -2.32269514140108     
 G   -15.2727683121976       -7.37011701736232       -2.32065749990334     
 H   -13.9687219867598       -7.65641753376168       -3.09637476733148     
 G   -13.9700518576657       -7.65703593113391       -3.09468444006201     
 O   -12.3810884995789        7.57532607724540       -18.9750944448656     
 D   -12.5251095286199        7.79260261936557       -18.9216381803658     
 G   -12.5238832053160        7.79374150118336       -18.9241574448851     
 H   -12.0754557458660        8.50058340949342       -18.9417404499153     
 G   -12.0769134799045        8.49889740841134       -18.9399103331704     
 H   -13.3327122333099        7.62463535332730       -18.7686765028350     
 G   -13.3333087228228        7.62355897274534       -18.7672726060557     
 O   -7.39854346861202        3.71041782934973        7.87867515008937     
 D   -7.33613817125726        3.45485397621537        7.83865739641451     
 G   -7.32885030868626        3.46899963340825        7.82878161127804     
 H   -6.86818618878353        3.12849553865815        8.45375132185201     
 G   -6.86993526823560        3.11900262407721        8.46040498575286     
 H   -7.64899043021522        3.14603906941413        7.12410213383627     
 G   -7.64749493008899        3.12817815661511        7.12484653724351     
 O    5.35505880440395       -1.33971546918045       -18.6575071420131     
 D    5.24676210862644       -1.53693944670275       -18.5154393654065     
 G    5.25047963813417       -1.53767339157192       -18.5137579827995     
 H    5.63445887078396       -1.66850876647414       -17.7831756427741     
 G    5.62951984342097       -1.66756462138740       -17.7854654937661     
 H    4.58990529922347       -1.89554706049504       -18.8946123037171     
 G    4.58685625067195       -1.89525761749049       -18.8958285291462     
 O    5.03072060215880        18.7056836706393       -12.7275942067078     
 D    4.85872414643351        18.9065584057238       -12.7571794192074     
 G    4.85282884876771        18.9042774860573       -12.7589533377624     
 H    4.31078286666483        18.9685614381028       -12.1249251960682     
 G    4.31635855205731        18.9709737656180       -12.1207014097590     
 H    4.97918982552939        19.3438060508008       -13.4629661595976     
 G    4.98443999342545        19.3473159834067       -13.4637463039983     
 O   -9.60871657492205        14.0367457835766        19.1155102178961     
 D   -9.47997944416340        13.8708842574186        19.2789893605431     
 G   -9.48746279219557        13.8762780180315        19.2757976126389     
 H   -8.67549387251546        14.0788326843261        19.3947038433574     
 G   -8.66316788841719        14.0796375729452        19.3912005729280     
 H   -9.96450622338488        13.2507056122909        19.5695829843905     
 G   -9.96080556480849        13.2477472539041        19.5698080960536     
 O   -11.7957445683189       -2.35180247893252        16.1815987728503     
 D   -12.0258267270458       -2.23119898215987        16.1239297033438     
 G   -12.0252823750110       -2.23877305394037        16.1254911774737     
 H   -11.9256580917764       -1.50859750274637        15.7096317776506     
 G   -11.9259712864926       -1.50383138721197        15.7079163145683     
 H   -12.6978381926324       -2.65405662707442        16.3948990893150     
 G   -12.7020981877265       -2.64588806920002        16.3912281817168     
 O   -20.2412300368284       -9.41462537713540       -14.6808673998910     
 D   -20.1480024348330       -9.16552716210117       -14.6726565370277     
 G   -20.1467864842295       -9.16565184106274       -14.6745109916288     
 H   -19.9307656911482       -8.86872805065863       -15.4266776968211     
 G   -19.9330047179690       -8.86990872753119       -15.4256946309270     
 H   -20.1335334363196       -8.84322243412216       -13.8982259615205     
 G   -20.1342759636084       -8.84202005342317       -13.8948442057431     
 O   -11.1241031579251        4.75903555210501        17.9915862954696     
 D   -11.1380404922743        4.79004601245926        18.2555045154467     
 G   -11.1378949389839        4.78732138260304        18.2508333258384     
 H   -10.6730282875643        5.42842463635770        18.5384635350877     
 G   -10.6750462877901        5.43061061838274        18.5443355214493     
 H   -11.6376937243039        4.22873837209934        18.6284827808617     
 G   -11.6368723270066        4.23245381894557        18.6329662041937     
 O    15.6067778530525        17.4163722138341       -7.22443423433028     
 D    15.5415461788577        17.6676509529158       -7.28285125876047     
 G    15.5412333667027        17.6600992772301       -7.27624369770431     
 H    15.3328509315657        17.7764512011444       -8.08810787904940     
 G    15.3397382316769        17.7818666141414       -8.09590845045697     
 H    15.5881162908648        18.1833745493035       -6.62278095744970     
 G    15.5893532147606        18.1907960567003       -6.62638655955041     
 O    18.4880135517808        17.3129671678858       -8.77563891483607     
 D    18.5624480926063        17.0731312432847       -8.68762213701017     
 G    18.5657597965769        17.0766769953713       -8.69480923276271     
 H    18.2335197077111        16.8782050299495       -7.94086962530295     
 G    18.2200415736702        16.8757646661391       -7.93222980771839     
 H    19.0763758879333        16.6719736597396       -9.21562139859164     
 G    19.0751061796380        16.6702306861207       -9.21113924274700     
 O    19.3333937008883       -15.4250044275699       -9.01318416869188     
 D    19.3745235522176       -15.4022468314415       -9.27509856677661     
 G    19.3769913624966       -15.3995191218096       -9.25967564808338     
 H    18.9320984741057       -15.9523941792596       -9.72833952997659     
 G    18.9321485344141       -15.9549702734739       -9.73555922717331     
 H    19.9191734378698       -14.7955364622200       -9.47281410944860     
 G    19.9233387655978       -14.7873193745038       -9.48929601523748     
 O   -8.91432188503645       -7.23487334205257        13.6918926427516     
 D   -9.02938659292345       -7.47459757580243        13.7019489605630     
 G   -9.02977197492314       -7.47471882751671        13.7024567753121     
 H   -9.81387131955205       -7.45267603846280        13.9984832497491     
 G   -9.81326244177483       -7.45333505167562        13.9977307537865     
 H   -8.53087949706237       -8.09232596762992        13.4304075913716     
 G   -8.53084823094707       -8.09204204656296        13.4299613875706     
 O  -0.425632914297077        3.26654363038969        11.5383874990844     
 D  -0.199980414271310        3.25525816708110        11.6789659907751     
 G  -0.199026041618907        3.25320196530593        11.6774352564667     
 H  -0.308115743009208        2.95348909939569        12.4542540696484     
 G  -0.308751971480391        2.95554565395776        12.4551784007548     
 H   0.468988365634799        3.52897943189565        11.2530671218224     
 G   0.467667093792120        3.53037203629901        11.2551789645798     
 O    7.46614916824179       -10.7788314308332       -3.38138813553842     
 D    7.34415364390430       -10.9415745377279       -3.55297047138882     
 G    7.34492059084421       -10.9403724763293       -3.55195959706740     
 H    6.65070419411684       -10.6090223741536       -3.88818136600223     
 G    6.64956716624180       -10.6105936338991       -3.88957725661594     
 H    7.73439944838874       -11.6786068248063       -3.64420657039724     
 G    7.73360363389751       -11.6790792962908       -3.64497546230855     
 O    13.4054602021852       -9.68494953374419       -13.1393490600044     
 D    13.6566889750933       -9.61065644827464       -13.1859684324849     
 G    13.6474095227101       -9.62120033152639       -13.1858123273112     
 H    13.7206446941652       -8.82829250862068       -13.4820186929191     
 G    13.7299629256411       -8.79743854299908       -13.4909508158970     
 H    14.2171330503973       -10.2083758911010       -13.0057843266376     
 G    14.2214253581022       -10.2011992072897       -13.0074241991722     
 O   -13.9299482177509        16.0533485258896        6.37285022807385     
 D   -13.8486336242938        15.8001948648960        6.36236759517660     
 G   -13.8507202624973        15.8034200363266        6.35822047595956     
 H   -13.1802012164981        15.6472951021968        6.84574033287592     
 G   -13.1765313440864        15.6456345956311        6.84894381247901     
 H   -14.3149700485551        15.3239110146009        5.85294003483922     
 G   -14.3144000456277        15.3204669363563        5.85598818205315     
 O    2.17704906300573       -4.46917818199753        2.53225486928064     
 D    2.35321566914209       -4.35680958312827        2.36749034140358     
 G    2.35160202716627       -4.35254529740749        2.37614122238066     
 H    2.05262766597471       -3.67966206242544        1.97385661274981     
 G    2.05471634692813       -3.68802794772188        1.96571540725310     
 H    3.09164625066616       -4.75468001656564        2.35162212340691     
 G    3.08917826680830       -4.75752201563637        2.34003756248683     
 O   -8.25732270837207        16.2720266321981        17.5319360850326     
 D   -8.49244407003502        16.2655836494916        17.6563754599892     
 G   -8.47956159343052        16.2710770036769        17.6579218006901     
 H   -9.04092416784392        15.7402501582095        17.2999715738980     
 G   -9.05577330169848        15.7268153593877        17.3086568826031     
 H   -8.52832920607171        16.7749054344578        18.3220600566614     
 G   -8.53983256609015        16.7694997438807        18.3196538042582     
 O    17.0681484683293        9.90680464677267       -3.17560033721540     
 D    16.8815508158690        9.72380892070992       -3.22562638158292     
 G    16.8907765265939        9.73161339951603       -3.23531590583853     
 H    16.4103812402403        9.90647339626316       -3.89529969383958     
 G    16.4064980315820        9.90022758743624       -3.88739939571855     
 H    16.8889549783260        9.08632923572293       -2.68028498806580     
 G    16.8662781929953        9.08176493143330       -2.66052502320403     
 O   -8.64797557698349        10.5109743407973        1.43721760535411     
 D   -8.87287895076183        10.6531560771191        1.44061629563318     
 G   -8.87298499732008        10.6535264628742        1.43779729347591     
 H   -8.95901972713508        11.1192313889895        2.13284674504056     
 G   -8.95868573452334        11.1192511967619        2.13491904997459     
 H   -9.34570917475114        10.5404555839128       0.756830814660330     
 G   -9.34635587755264        10.5397810526748       0.760531518115747     
 O    10.9060087923562        14.0494816857907       -7.39721657754701     
 D    11.0629682825018        14.1518095404673       -7.58616485985334     
 G    11.0612661540075        14.1524402412521       -7.58509306957068     
 H    11.2035988318676        14.9732929405006       -7.49015706417654     
 G    11.2059037699258        14.9722707678749       -7.49131756051070     
 H    11.3124419244699        13.5846476880101       -8.15178199268840     
 G    11.3139242617684        13.5843560932609       -8.15250680395929     
 O    8.35552958393893        10.6240639636545        16.9054508057425     
 D    8.60488497528714        10.5362054901730        16.9356419007720     
 G    8.60213871657957        10.5334003241778        16.9335738851277     
 H    9.06991636887828        11.0256367395466        17.4336702934238     
 G    9.07133666567332        11.0273630318598        17.4349871245731     
 H    8.75959609699288        9.82841071938164        16.5126484763115     
 G    8.76406292330928        9.83097573679195        16.5147104744591     
 O    19.6706270709283       -6.79002891377420       6.884181892523342E-002
 D    19.5181153384979       -6.81387183805791       0.285591469925338     
 G    19.5177339246612       -6.81343425920103       0.285820239785306     
 H    19.2583539627283       -6.07647725409364       0.589898354458716     
 G    19.2586255994519       -6.07687297168453       0.589505780515570     
 H    19.3988272673872       -7.61052746395047       0.519989796925353     
 G    19.3996416765189       -7.61099543545600       0.520009754454531     
 O    11.5204753133082       -19.7975558045027       -3.54689009936692     
 D    11.3611481806081       -19.6641034632284       -3.71306489339408     
 G    11.3610030331848       -19.6666974669029       -3.71219162892897     
 H    10.6839547340180       -20.1017644220807       -3.94477882428293     
 G    10.6841397584345       -20.0998362503892       -3.94667814993359     
 H    11.6423545487651       -18.8947608665889       -3.89435844920828     
 G    11.6426650519116       -18.8921903676636       -3.89480764337026     
 O   -7.24396322515079        19.1100121619275        12.4188654811376     
 D   -7.21459302399492        19.3373147820262        12.5540676814019     
 G   -7.21363819546871        19.3393459919113        12.5527180594625     
 H   -7.22817322636953        20.0178774715344        12.0636806622743     
 G   -7.22905504226256        20.0159598648234        12.0644923292491     
 H   -7.12801655107898        19.2216843534384        13.3804855685498     
 G   -7.12904353906620        19.2188806427921        13.3824139796258     
 O   -13.7643041800419        14.7566281869466       -14.7541780716012     
 D   -13.5692256847658        14.5833137159463       -14.7020704944290     
 G   -13.5691622339278        14.5821429540334       -14.7026920889816     
 H   -13.6857842038669        14.1591954195068       -13.9876706014936     
 G   -13.6856910974310        14.1602974637640       -13.9869423711429     
 H   -12.9678218331121        14.5766802651085       -15.2869651947145     
 G   -12.9679384264777        14.5779837579481       -15.2862987174419     
 O    19.0113962868356      -0.292453179443087       -5.33036681980478     
 D    19.0115220189146      -5.961888360661878E-002  -5.20153786479163     
 G    19.0112777321373      -5.913172362525553E-002  -5.20132545539647     
 H    19.6258979715648       3.829112693959382E-003  -4.63378266635955     
 G    19.6261072033201       3.284071206018895E-003  -4.63403213001350     
 H    18.3974567107535       0.455615575951842       -5.44910534018462     
 G    18.3976526100811       0.455314870664171       -5.44929488954110     
 O   -4.02011170017489       -7.05870521742125        2.41972855601638     
 D   -3.79590645196027       -6.96617485082695        2.31028056513969     
 G   -3.79730508696291       -6.96824261789059        2.31015020768941     
 H   -3.67470436922035       -7.23705935679750        1.52557612119879     
 G   -3.67342101016203       -7.23506566880764        1.52585157527059     
 H   -3.35987274994608       -6.46531603216054        2.82296707788202     
 G   -3.35760150577636       -6.46297380583570        2.82306959011449     
 O    5.12711530729890        7.45492906377248        15.9785595551316     
 D    5.37470045436321        7.50379851342505        15.8941670399433     
 G    5.37589357768174        7.49925757043012        15.8926886580724     
 H    5.58701869214559        8.31393162789143        15.9435099981642     
 G    5.58638684732637        8.32130142925751        15.9461101355223     
 H    5.77772575510815        6.81512231313685        15.6350761215536     
 G    5.77590762834847        6.81797593277863        15.6361731372394     
 O   -17.7202439889460       -5.15589278599859       -13.3040165245980     
 D   -17.5562710923649       -5.26192621176129       -13.4847885539162     
 G   -17.5581712396249       -5.26426020077775       -13.4863494017183     
 H   -16.7457522457218       -5.18035265148426       -13.2842034640512     
 G   -16.7442840534875       -5.17908838051160       -13.2827673271155     
 H   -17.9592567541310       -5.60703380326809       -14.1346621666835     
 G   -17.9566063415369       -5.60350878025395       -14.1334347057609     
 O    14.9462872492312        16.5764302724773       -2.06899144622757     
 D    14.7518553962094        16.6769357620422       -2.22033088548197     
 G    14.7527656385699        16.6766571425071       -2.21907323529279     
 H    14.8145857398961        16.4579769244961       -3.02776593315913     
 G    14.8137967206047        16.4569949357707       -3.02944922837539     
 H    14.2058870362320        17.1456899995747       -1.78903003853769     
 G    14.2046177437788        17.1473810677955       -1.79045440901986     
 O   -17.1381387934095       -11.7081403554534      -0.468780301377991     
 D   -17.3001625785567       -11.8488374670593      -0.626137667294890     
 G   -17.3009700237380       -11.8500474005767      -0.622029092716937     
 H   -17.3563609749901       -12.6562962078177      -0.405498715640201     
 G   -17.3558154524878       -12.6553457287582      -0.408792901251823     
 H   -17.6466553454801       -11.3910626554998       -1.23787077106435     
 G   -17.6452312625865       -11.3893384005505       -1.24278506791299     
 O    4.81669165190940        15.8759431490332       -16.7005938336805     
 D    4.59629197525931        15.7647137025020       -16.6012926880027     
 G    4.60513619367865        15.7712070227776       -16.6024052142762     
 H    4.18670604552585        16.2636153102215       -16.0654139920694     
 G    4.17718069574352        16.2594647698601       -16.0631417691237     
 H    4.45810129457732        14.9893627010727       -16.8903715115633     
 G    4.45296928486609        14.9867190601951       -16.8907560114948     
 O    11.7305759971092       -4.09285866404343       -14.0569044370271     
 D    11.7185154663570       -3.83359335166392       -14.1155965674258     
 G    11.7250020441051       -3.85262320346386       -14.1127335511285     
 H    12.4387717069738       -3.52959831939756       -14.4199769100663     
 G    12.4348916727247       -3.52073513220103       -14.4212410244184     
 H    10.9682820083954       -3.49321542450957       -13.9570877943651     
 G    10.9480505241010       -3.46113440116681       -13.9636934935879     
